/*--------------------------------*- C++ -*----------------------------------*\
| =========                 |                                                 |
| \\      /  F ield         | OpenFOAM: The Open Source CFD Toolbox           |
|  \\    /   O peration     | Version:  3.0.x                                 |
|   \\  /    A nd           | Web:      www.OpenFOAM.org                      |
|    \\/     M anipulation  |                                                 |
\*---------------------------------------------------------------------------*/
FoamFile
{
    version     2.0;
    format      ascii;
    class       dictionary;
    location    "system";
    object      controlDict;
}
// * * * * * * * * * * * * * * * * * * * * * * * * * * * * * * * * * * * * * //

application     sonicFoam;

startFrom       startTime;
startTime       0;

stopAt          endTime;
endTime         0.007;

deltaT          1e-05;

writeControl    runTime;
writeInterval   0.001;

purgeWrite      0;
writeFormat     ascii;
writePrecision  6;
writeCompression off;
timeFormat      general;
timePrecision   6;
runTimeModifiable true;

functions
{
    temperatureSampling
    {
        type                sets;
        libs                ("libsampling.so");
        writeControl        writeTime;

        interpolationScheme cellPoint;
        setFormat           csv;

        sets
        (
            data
            {
                type    uniform;
                axis    x;
                start   (-4.995 0 0);
                end     (4.995 0 0);
                nPoints 1000;
            }
        );

        fields (T);
    }

    velocitySampling
    {
        type                sets;
        libs                ("libsampling.so");
        writeControl        writeTime;

        interpolationScheme cellPoint;
        setFormat           csv;

        sets
        (
            data
            {
                type    uniform;
                axis    x;
                start   (-4.995 0 0);
                end     (4.995 0 0);
                nPoints 1000;
            }
        );

        fields (U);
    }

    pressureSampling
    {
        type                sets;
        libs                ("libsampling.so");
        writeControl        writeTime;

        interpolationScheme cellPoint;
        setFormat           csv;

        sets
        (
            data
            {
                type    uniform;
                axis    x;
                start   (-4.995 0 0);
                end     (4.995 0 0);
                nPoints 1000;
            }
        );

        fields (p);
    }
}

// ************************************************************************* //
